/*--------------------------------*- C++ -*----------------------------------*\
  =========                 |
  \\      /  F ield         | OpenFOAM: The Open Source CFD Toolbox
   \\    /   O peration     | Website:  https://openfoam.org
    \\  /    A nd           | Version:  10
     \\/     M anipulation  |
\*---------------------------------------------------------------------------*/
FoamFile
{
    format      ascii;
    class       dictionary;
    location    "system";
    object      controlDict;
}
// * * * * * * * * * * * * * * * * * * * * * * * * * * * * * * * * * * * * * //

application     simpleFoam;

startFrom       startTime;

startTime       0;

stopAt          endTime;

endTime         3000;

deltaT          1;

writeControl    timeStep;

writeInterval   50;

purgeWrite      0;

writeFormat     ascii;

writePrecision  6;

writeCompression off;

timeFormat      general;

timePrecision   6;

runTimeModifiable true;

functions
{
    calcForces
    {
        type            forces;
        functionObjectLibs ( "libforces.so" );
        enabled         true;
        writeControl   outputTime;
	    pName               p;
        UName               U;
	    rhoInf  1.225;
        rho         rhoInf;
        CofR  (0 0 0);
        patches (AIRFOIL);
    }
    calcForceCoefficients
    {
        type            forceCoeffs;
        functionObjectLibs ( "libforces.so" );
        enabled         true;
        writeControl   outputTime;
	    p               p;
        U               U;
        rhoInf 1.225;
        rho         rhoInf;
        CofR  (0 0 0);
        patches (AIRFOIL);
        liftDir (0 1 0);
        dragDir (1 0 0);
        magUInf 51.4815;
        pitchAxis       (0 0 1);
        lRef            1;
        Aref           1.0;
    }
}
