/*--------------------------------*- C++ -*----------------------------------*\
  =========                 |
  \\      /  F ield         | OpenFOAM: The Open Source CFD Toolbox
   \\    /   O peration     | Website:  https://openfoam.org
    \\  /    A nd           | Version:  10
     \\/     M anipulation  |
\*---------------------------------------------------------------------------*/
FoamFile
{
    format      ascii;
    class       dictionary;
    location    "system";
    object      fvSolution;
}
// * * * * * * * * * * * * * * * * * * * * * * * * * * * * * * * * * * * * * //

// solvers
// {
//     p
//     {
//         solver          GAMG;
//         tolerance       1e-06;
//         relTol          0.1;
//         smoother        GaussSeidel;
//     }

//     U
//     {
//         solver          smoothSolver;
//         smoother        GaussSeidel;
//         nSweeps         2;
//         tolerance       1e-08;
//         relTol          0.1;
//     }

//     // nuTilda
//     // {
//     //     solver          smoothSolver;
//     //     smoother        GaussSeidel;
//     //     nSweeps         2;
//     //     tolerance       1e-08;
//     //     relTol          0.1;
//     // }
//     k
//     {
//         solver          smoothSolver;
//         smoother        GaussSeidel;
//         nSweeps         2;
//         tolerance       1e-08;
//         relTol          0.1;
//     }   
//      omega
//     {
//         solver          smoothSolver;
//         smoother        GaussSeidel;
//         nSweeps         2;
//         tolerance       1e-08;
//         relTol          0.1;
//     }
// }

// SIMPLE
// {
//     nNonOrthogonalCorrectors 0;

//     residualControl
//     {
//         p               1e-5;
//         U               1e-5;
//         nuTilda         1e-5;
//     }
// }

// relaxationFactors
// {
//     fields
//     {
//         p               0.3;
//     }
//     equations
//     {
//         U               0.7;
//         nuTilda         0.7;
//     }
// }


// ************************************************************************* //

solvers
{
    p
    {
        solver          GAMG;
        smoother        DICGaussSeidel;
        tolerance       1e-08;
        relTol          0.1;
    }

    "(U|k|epsilon|omega|nuTilda|phit)"
    {
        solver          PBiCGStab;
        preconditioner  DILU;
        tolerance       1e-8;
        relTol          1e-08;
    }

    f
    {
        solver          PBiCGStab;
        preconditioner  DIC;
        tolerance       1e-8;
        relTol          1e-06;
    }
}

SIMPLE
{
    nNonOrthogonalCorrectors 0;
    consistent          yes;
    residualControl
    {
        p               1e-5;
        U               1e-5;
        "(k|epsilon|omega|nuTilda|phit|f)" 1e-5;
    }
}

relaxationFactors
{
    equations
    {
        U               0.9;
        "(k|epsilon|omega|nuTilda|phit|f)" 0.7;
    }
}

cache
{
    grad(U);
}
