/*--------------------------------*- C++ -*----------------------------------*\
  =========                 |
  \\      /  F ield         | OpenFOAM: The Open Source CFD Toolbox
   \\    /   O peration     | Website:  https://openfoam.org
    \\  /    A nd           | Version:  10
     \\/     M anipulation  |
\*---------------------------------------------------------------------------*/
FoamFile
{
    format          ascii;
    class           polyBoundaryMesh;
    location        "constant/polyMesh";
    object          boundary;
}
// * * * * * * * * * * * * * * * * * * * * * * * * * * * * * * * * * * * * * //


5 // entry0
(
    frontAndBackPlanes
    {
        type            empty;
        physicalType    empty;
        nFaces          80820;
        startFace       60185;
    }
    INLET
    {
        type            inlet;
        physicalType    inlet;
        nFaces          80;
        startFace       141005;
    }
    WALL
    {
        type            inlet;
        physicalType    inlet;
        nFaces          50;
        startFace       141085;
    }
    OUTLET
    {
        type            outlet;
        physicalType    outlet;
        nFaces          50;
        startFace       141135;
    }
    AIRFOIL
    {
        type            wall;
        physicalType    wall;
        nFaces          680;
        startFace       141185;
    }
)


// ************************************************************************* //
