
/*--------------------------------*- C++ -*----------------------------------*\
  =========                 |
  \\      /  F ield         | OpenFOAM: The Open Source CFD Toolbox
   \\    /   O peration     | Website:  https://openfoam.org
    \\  /    A nd           | Version:  10
     \\/     M anipulation  |
\*---------------------------------------------------------------------------*/
FoamFile
{
    format      ascii;
    class       volScalarField;
    object      k;
}
// * * * * * * * * * * * * * * * * * * * * * * * * * * * * * * * * * * * * * //


dimensions      [0 2 -2 0 0 0 0];

//internalField   uniform 1.08e-3;
// u_inf 50.0;
// re #calc "$u_inf*3.0/8.58e-06";

// internalField   uniform #calc "3/2*pow(0.01*50,2)";
// //internalField   uniform #calc "1.0e-3*pow(50,2)/$re";
internalField   uniform 2.0;

boundaryField
{
    "(INLET|OUTLET|WALL)"{
        type turbulentIntensityKineticEnergyInlet;
        intensity       0.05;
	    value           uniform 1.0;
    }

    AIRFOIL
    {
        type            kqRWallFunction;
        //value           $internalField;
    }

    frontAndBackPlanes
    {
        type            empty;
    }
//    outlet
    // {
    //     type            inletOutlet;
    //     inletValue      uniform $turbulentKE;
    //     value           $internalField;
    // }

    // inlet
    // {
    //     type            atmBoundaryLayerInletK;
    //     #include        "include/ABLConditions"
    // }

    // terrain
    // {
    //     type            kqRWallFunction;
    //     value           uniform 0.0;
    // }

    // ground
    // {
    //     type            zeroGradient;
    // }

    // #include "include/sideAndTopPatches"
}