/*--------------------------------*- C++ -*----------------------------------*\
  =========                 |
  \\      /  F ield         | OpenFOAM: The Open Source CFD Toolbox
   \\    /   O peration     | Website:  https://openfoam.org
    \\  /    A nd           | Version:  10
     \\/     M anipulation  |
\*---------------------------------------------------------------------------*/
FoamFile
{
    format      ascii;
    class       volScalarField;
    object      nut;
}
// * * * * * * * * * * * * * * * * * * * * * * * * * * * * * * * * * * * * * //

dimensions      [0 2 -1 0 0 0 0];

//internalField   uniform 0.14;
//internalField   uniform 0.044;
internalField   uniform #calc "0.5*8.58e-06";


boundaryField
{
    "(INLET|OUTLET|WALL)"
    {
        //for k-omega and k-epsilon 
        type            calculated;
        value          uniform 0;
        
        // // for spallart allmaras
        // type            freestream;
        // freestreamValue $internalField;

    }

    AIRFOIL
    {
        // // for spallart allmaras
        // type            nutUSpaldingWallFunction;
        // value           uniform 0;

        // for k-omega and k-epsilon
        type            nutkWallFunction;
        value           $internalField;
    }

    frontAndBackPlanes
    {
        type            empty;
    }
}

// ************************************************************************* //
