/*--------------------------------*- C++ -*----------------------------------*\
  =========                 |
  \\      /  F ield         | OpenFOAM: The Open Source CFD Toolbox
   \\    /   O peration     | Website:  https://openfoam.org
    \\  /    A nd           | Version:  10
     \\/     M anipulation  |
\*---------------------------------------------------------------------------*/
FoamFile
{
    format      ascii;
    class       volScalarField;
    object      nuTilda;
}
// * * * * * * * * * * * * * * * * * * * * * * * * * * * * * * * * * * * * * //

dimensions      [0 2 -1 0 0 0 0];

//internalField   uniform 0.14;
//internalField   uniform 0.014;
internalField   uniform #calc "0.5*3.432e-05";

boundaryField
{
    "(INLET|OUTLET|WALL)"
    {
        type            freestream;
        freestreamValue $internalField;
    }
    AIRFOIL
    {
        // type            fixedValue;
        // value           uniform 0;
        type            nutUSpaldingWallFunction;
        value           uniform 0;
    }

    frontAndBackPlane
    {
        type            empty;
    }
}

// ************************************************************************* //
