/*--------------------------------*- C++ -*----------------------------------*\
  =========                 |
  \\      /  F ield         | OpenFOAM: The Open Source CFD Toolbox
   \\    /   O peration     | Website:  https://openfoam.org
    \\  /    A nd           | Version:  10
     \\/     M anipulation  |
\*---------------------------------------------------------------------------*/
FoamFile
{
    format          ascii;
    class           volVectorField;
    object          U;
}
// * * * * * * * * * * * * * * * * * * * * * * * * * * * * * * * * * * * * * //

dimensions      [ 0 1 -1 0 0 0 0 ];

angle           12;

magnitude       51.4815;

radAngle        #calc "degToRad($angle)";

internalField   uniform ( #calc "$magnitude*cos($radAngle)" #calc "$magnitude*sin($radAngle)" 0 );

boundaryField
{
    "(INLET|OUTLET|WALL)"
    {
        type            freestreamVelocity;
        freestreamValue $internalField;
    }
    AIRFOIL
    {
        type            noSlip;
    }
    frontAndBackPlanes
    {
        type            empty;
    }
}


// ************************************************************************* //
